REMARK  8 active torsions:
REMARK  status: ('A' for Active; 'I' for Inactive)
REMARK    1  A    between atoms: O_2  and  C_16 
REMARK    2  A    between atoms: O_3  and  C_14 
REMARK    3  A    between atoms: O_5  and  C_19 
REMARK    4  A    between atoms: O_6  and  C_21 
REMARK    5  A    between atoms: C_8  and  C_15 
REMARK    6  A    between atoms: C_13  and  C_20 
REMARK    7  A    between atoms: C_15  and  C_22 
REMARK    8  A    between atoms: C_20  and  C_23 
ROOT
HETATM    1  O   UNK     0       0.219  -2.467   0.359  0.00  0.00    -0.309 OA
HETATM    2  O   UNK     0       0.594   1.402  -0.917  0.00  0.00    -0.286 OA
HETATM    3  C   UNK     0       1.657  -0.561  -0.153  0.00  0.00     0.058 A 
HETATM    4  C   UNK     0       2.946  -0.026  -0.215  0.00  0.00    -0.002 A 
HETATM    5  C   UNK     0      -0.826  -0.407  -0.434  0.00  0.00     0.083 A 
HETATM    6  C   UNK     0       1.454  -1.873   0.272  0.00  0.00     0.093 A 
HETATM    7  C   UNK     0       0.488   0.247  -0.534  0.00  0.00     0.201 A 
HETATM    8  C   UNK     0      -0.884  -1.728   0.008  0.00  0.00     0.095 A 
HETATM    9  C   UNK     0      -3.226  -0.364  -0.670  0.00  0.00     0.013 A 
HETATM   10  C   UNK     0      -1.994   0.280  -0.775  0.00  0.00     0.092 A 
HETATM   11  C   UNK     0       4.036  -0.815   0.153  0.00  0.00     0.108 A 
HETATM   12  C   UNK     0       2.549  -2.658   0.639  0.00  0.00     0.077 A 
HETATM   13  C   UNK     0      -2.121  -2.368   0.110  0.00  0.00     0.075 A 
HETATM   14  C   UNK     0      -3.290  -1.686  -0.229  0.00  0.00     0.077 A 
HETATM   15  C   UNK     0       3.839  -2.128   0.579  0.00  0.00     0.102 A 
ENDROOT
BRANCH   4  16
HETATM   16  C   UNK     0       3.228   1.375  -0.663  0.00  0.00     0.070 C 
BRANCH  16  17
HETATM   17  C   UNK     0       3.217   2.364   0.475  0.00  0.00    -0.020 C 
HETATM   18  C   UNK     0       2.856   3.661   0.442  0.00  0.00    -0.091 C 
HETATM   19  C   UNK     0       2.869   4.595   1.619  0.00  0.00     0.042 C 
HETATM   20  C   UNK     0       2.403   4.294  -0.847  0.00  0.00     0.042 C 
ENDBRANCH  16  17
ENDBRANCH   4  16
BRANCH  15  21
HETATM   21  O   UNK     0       4.898  -2.907   0.938  0.00  0.00    -0.358 OA
HETATM   22  H   UNK     0       4.571  -3.784   1.203  0.00  0.00     0.217 HD
ENDBRANCH  15  21
BRANCH  10  23
HETATM   23  O   UNK     0      -1.973   1.573  -1.210  0.00  0.00    -0.359 OA
HETATM   24  H   UNK     0      -1.066   1.915  -1.230  0.00  0.00     0.217 HD
ENDBRANCH  10  23
BRANCH  14  25
HETATM   25  O   UNK     0      -4.488  -2.329  -0.122  0.00  0.00    -0.360 OA
HETATM   26  H   UNK     0      -5.217  -1.695  -0.093  0.00  0.00     0.217 HD
ENDBRANCH  14  25
BRANCH  11  27
HETATM   27  O   UNK     0       5.304  -0.311   0.099  0.00  0.00    -0.353 OA
HETATM   28  C   UNK     0       6.228  -0.979  -0.756  0.00  0.00     0.210 C 
ENDBRANCH  11  27
BRANCH   9  29
HETATM   29  C   UNK     0      -4.485   0.358  -1.030  0.00  0.00     0.071 C 
BRANCH  29  30
HETATM   30  C   UNK     0      -5.097   1.084   0.141  0.00  0.00    -0.020 C 
HETATM   31  C   UNK     0      -6.306   0.886   0.700  0.00  0.00    -0.091 C 
HETATM   32  C   UNK     0      -6.856   1.650   1.872  0.00  0.00     0.042 C 
HETATM   33  C   UNK     0      -7.238  -0.162   0.150  0.00  0.00     0.042 C 
ENDBRANCH  29  30
ENDBRANCH   9  29
TORSDOF 8
